** sch_path: /nix/store/qriw4afhakn3sqg2al06kdyr745hx86w-xschem-3.4.7/share/doc/xschem/examples/loading.sch
.subckt loading

x4 VX ING pump
x5 SW VXS VX switch_rreal
x3 VX real_capa
x1 VXS real_capa
x2 SW1 SP VXS switch_rreal
x6 SP real_capa
x7 VX2 ING1 pump
x8 SW2 VXS VX2 switch_rreal
x9 VX2 real_capa
* noconn ING
* noconn ING1
* noconn SW
* noconn SW1
* noconn SW2
**** begin user architecture code


-- these assignments are done to have the voltage values available
-- in the waveform file
V_VX <= VX.value;
V_VX2 <= VX2.value;
V_VXS <= VXS.value;
V_SP <= SP.value;


process
begin
ING<='0';
ING1<='0';
SW <= '0';
SW1<='0';
SW2<='0';
--VX <= rreal'(4.5,10.0,0.0);
--VX2 <= rreal'(3.0, 5.0, 0.0);
wait for 200 ns;
ING1<='1';
wait for 200 ns;
ING<='1';
wait for 200 ns;
SW<='1';
wait for 200 ns;
SW2<='1';
wait for 200 ns;
SW1<='1';
wait for 200 ns;
SW1<='0';
wait for 200 ns;
SW2<='0';
wait for 200 ns;
SW1<='1';
wait for 200 ns;
SW<='1';
wait for 200 ns;
ING <='0';
wait for 200 ns;
SW1<= '0';
wait for 200 ns;
SW<='1';
wait for 200 ns;
ING<='1';
wait for 200 ns;
SW <= '0';
wait for 200 ns;
SW1<= '1';
wait for 200 ns;
ING<='1';
wait for 200 ns;
SW<='0';
wait for 200 ns;
SW1<='0';
wait for 200 ns;
SW<='1';
wait for 200 ns;
SW1<='1';
wait for 200 ns;
SW1<='0';
wait for 200 ns;
SW1<='1';
wait for 200 ns;



wait;
end process;




* test
**** end user architecture code
.ends

* expanding   symbol:  pump.sym # of pins=2
** sym_path: /nix/store/qriw4afhakn3sqg2al06kdyr745hx86w-xschem-3.4.7/share/doc/xschem/examples/pump.sym
** sch_path: /nix/store/qriw4afhakn3sqg2al06kdyr745hx86w-xschem-3.4.7/share/doc/xschem/examples/pump.sch
.subckt pump USC ING  val=4.5 conduct=10.0
*.PININFO USC:B ING:I
.ends


* expanding   symbol:  switch_rreal.sch # of pins=3
** sym_path: /nix/store/qriw4afhakn3sqg2al06kdyr745hx86w-xschem-3.4.7/share/doc/xschem/examples/switch_rreal.sch
** sch_path: /nix/store/qriw4afhakn3sqg2al06kdyr745hx86w-xschem-3.4.7/share/doc/xschem/examples/switch_rreal.sch
.subckt switch_rreal ENAB B A  del=2 ns
*.PININFO ENAB:I A:B B:B
.ends


* expanding   symbol:  real_capa.sym # of pins=1
** sym_path: /nix/store/qriw4afhakn3sqg2al06kdyr745hx86w-xschem-3.4.7/share/doc/xschem/examples/real_capa.sym
** sch_path: /nix/store/qriw4afhakn3sqg2al06kdyr745hx86w-xschem-3.4.7/share/doc/xschem/examples/real_capa.sch
.subckt real_capa USC  cap=10.0
*.PININFO USC:B
.ends

