.title Emitter Follower
.model 2N2222 npn(bf=100 is=1e-14 vaf=50)
Vcc vcc 0 12
Vin vin 0 6
R1 vcc base 100k
R2 base 0 100k
Cin vin base 1u
Q1 vcc base vout 2N2222
Re vout 0 1k
Cout vout output 10u
Rload output 0 100
.end
