.title Common Emitter Amplifier
.model 2N2222 npn(bf=100 is=1e-14 vaf=50)
Vcc vcc 0 5
Vin vin 0 0
R1 vcc base 56k
R2 base 0 10k
Cin vin base 10u
Cout vout output 10u
Q1 vout base emitter 2N2222
Rc vcc vout 2.2k
Re emitter 0 1k
Ce emitter 0 100u
Rload output 0 10k
.end
