.title Cascode Current Mirror
.model nmos_1v8 nmos(level=1 kp=0.00012 vto=0.5)
Vdd vdd 0 1.8
Vbias vcasc 0 800m
Iref vdd iref 50u
M1 iref iref src1 0 nmos_1v8 W=2u L=500n
M3 src1 vcasc 0 0 nmos_1v8 W=2u L=500n
M2 iout iref src2 0 nmos_1v8 W=2u L=500n
M4 src2 vcasc 0 0 nmos_1v8 W=2u L=500n
Vout vdd iout 0
.end
