.title Differential Pair
.model nmos_1v8 nmos(level=1 kp=0.00012 vto=0.5)
Vdd vdd 0 1.8
Vinp inp 0 900m
Vinn inn 0 900m
Rd1 vdd outp 10k
Rd2 vdd outn 10k
M1 outp inp tail 0 nmos_1v8 W=10u L=180n
M2 outn inn tail 0 nmos_1v8 W=10u L=180n
Itail 0 tail 100u
.end
