** sch_path: /home/omare/Documents/UWASIC/Schemify/test/examples/xschem_sky130/xschem_verilog_import/audiodac.sch
.subckt audiodac VGND VPWR clk_i ds_n_o ds_o fifo_ack_o fifo_empty_o fifo_full_o fifo_rdy_i mode_i rst_n_i


*  p4939 -  ipin  IS MISSING !!!!
*  p4940 -  ipin  IS MISSING !!!!
*  p4941 -  ipin  IS MISSING !!!!
*  p4942 -  opin  IS MISSING !!!!
*  p4943 -  opin  IS MISSING !!!!
*  p4944 -  opin  IS MISSING !!!!
*  p4945 -  opin  IS MISSING !!!!
*  p4946 -  opin  IS MISSING !!!!
*  p4947 -  ipin  IS MISSING !!!!
*  p4948 -  ipin  IS MISSING !!!!
*  p4949 -  ipin  IS MISSING !!!!
*  p4950 -  ipin  IS MISSING !!!!
*  p4951 -  ipin  IS MISSING !!!!
*  p4952 -  ipin  IS MISSING !!!!
*  p0 -  lab_pin  IS MISSING !!!!
*  XANTENNA_0 -  diode_2  IS MISSING !!!!
*  p1 -  lab_pin  IS MISSING !!!!
*  XANTENNA_1 -  diode_2  IS MISSING !!!!
*  XFILLER_0_101 -  fill_1  IS MISSING !!!!
*  XFILLER_0_106 -  decap_6  IS MISSING !!!!
*  XFILLER_0_116 -  decap_12  IS MISSING !!!!
*  XFILLER_0_128 -  decap_3  IS MISSING !!!!
*  XFILLER_0_136 -  decap_4  IS MISSING !!!!
*  XFILLER_0_15 -  decap_4  IS MISSING !!!!
*  XFILLER_0_150 -  decap_8  IS MISSING !!!!
*  XFILLER_0_158 -  decap_3  IS MISSING !!!!
*  XFILLER_0_164 -  decap_4  IS MISSING !!!!
*  XFILLER_0_169 -  decap_3  IS MISSING !!!!
*  XFILLER_0_177 -  decap_12  IS MISSING !!!!
*  XFILLER_0_192 -  decap_4  IS MISSING !!!!
*  XFILLER_0_206 -  decap_12  IS MISSING !!!!
*  XFILLER_0_218 -  decap_6  IS MISSING !!!!
*  XFILLER_0_225 -  decap_8  IS MISSING !!!!
*  XFILLER_0_238 -  decap_4  IS MISSING !!!!
*  XFILLER_0_24 -  decap_4  IS MISSING !!!!
*  XFILLER_0_245 -  decap_6  IS MISSING !!!!
*  XFILLER_0_251 -  fill_1  IS MISSING !!!!
*  XFILLER_0_262 -  decap_4  IS MISSING !!!!
*  XFILLER_0_271 -  decap_8  IS MISSING !!!!
*  XFILLER_0_279 -  fill_1  IS MISSING !!!!
*  XFILLER_0_281 -  decap_12  IS MISSING !!!!
*  XFILLER_0_29 -  decap_6  IS MISSING !!!!
*  XFILLER_0_298 -  decap_8  IS MISSING !!!!
*  XFILLER_0_306 -  fill_2  IS MISSING !!!!
*  XFILLER_0_318 -  decap_12  IS MISSING !!!!
*  XFILLER_0_330 -  decap_6  IS MISSING !!!!
*  XFILLER_0_337 -  decap_12  IS MISSING !!!!
*  XFILLER_0_349 -  decap_12  IS MISSING !!!!
*  XFILLER_0_361 -  decap_3  IS MISSING !!!!
*  XFILLER_0_365 -  fill_1  IS MISSING !!!!
*  XFILLER_0_370 -  decap_8  IS MISSING !!!!
*  XFILLER_0_378 -  fill_1  IS MISSING !!!!
*  XFILLER_0_40 -  decap_4  IS MISSING !!!!
*  XFILLER_0_47 -  decap_8  IS MISSING !!!!
*  XFILLER_0_55 -  fill_1  IS MISSING !!!!
*  XFILLER_0_62 -  decap_4  IS MISSING !!!!
*  XFILLER_0_69 -  decap_4  IS MISSING !!!!
*  XFILLER_0_7 -  decap_4  IS MISSING !!!!
*  XFILLER_0_73 -  fill_1  IS MISSING !!!!
*  XFILLER_0_80 -  decap_4  IS MISSING !!!!
*  XFILLER_0_90 -  decap_4  IS MISSING !!!!
*  XFILLER_0_97 -  decap_4  IS MISSING !!!!
*  XFILLER_10_110 -  decap_4  IS MISSING !!!!
*  XFILLER_10_122 -  decap_4  IS MISSING !!!!
*  XFILLER_10_126 -  fill_1  IS MISSING !!!!
*  XFILLER_10_136 -  decap_4  IS MISSING !!!!
*  XFILLER_10_141 -  fill_2  IS MISSING !!!!
*  XFILLER_10_147 -  decap_4  IS MISSING !!!!
*  XFILLER_10_167 -  decap_4  IS MISSING !!!!
*  XFILLER_10_18 -  decap_8  IS MISSING !!!!
*  XFILLER_10_181 -  decap_12  IS MISSING !!!!
*  XFILLER_10_193 -  decap_3  IS MISSING !!!!
*  XFILLER_10_218 -  decap_8  IS MISSING !!!!
*  XFILLER_10_226 -  fill_1  IS MISSING !!!!
*  XFILLER_10_248 -  decap_4  IS MISSING !!!!
*  XFILLER_10_253 -  decap_12  IS MISSING !!!!
*  XFILLER_10_26 -  fill_2  IS MISSING !!!!
*  XFILLER_10_265 -  fill_2  IS MISSING !!!!
*  XFILLER_10_270 -  decap_4  IS MISSING !!!!
*  XFILLER_10_279 -  decap_4  IS MISSING !!!!
*  XFILLER_10_29 -  decap_3  IS MISSING !!!!
*  XFILLER_10_304 -  decap_4  IS MISSING !!!!
*  XFILLER_10_325 -  decap_4  IS MISSING !!!!
*  XFILLER_10_337 -  decap_8  IS MISSING !!!!
*  XFILLER_10_345 -  fill_2  IS MISSING !!!!
*  XFILLER_10_355 -  decap_8  IS MISSING !!!!
*  XFILLER_10_363 -  fill_1  IS MISSING !!!!
*  XFILLER_10_373 -  decap_6  IS MISSING !!!!
*  XFILLER_10_40 -  decap_4  IS MISSING !!!!
*  XFILLER_10_44 -  fill_1  IS MISSING !!!!
*  XFILLER_10_54 -  decap_4  IS MISSING !!!!
*  XFILLER_10_6 -  decap_12  IS MISSING !!!!
*  XFILLER_10_74 -  decap_8  IS MISSING !!!!
*  XFILLER_10_82 -  fill_2  IS MISSING !!!!
*  XFILLER_10_85 -  decap_3  IS MISSING !!!!
*  XFILLER_10_96 -  decap_6  IS MISSING !!!!
*  XFILLER_11_104 -  decap_8  IS MISSING !!!!
*  XFILLER_11_113 -  decap_8  IS MISSING !!!!
*  XFILLER_11_121 -  decap_3  IS MISSING !!!!
*  XFILLER_11_145 -  decap_8  IS MISSING !!!!
*  XFILLER_11_153 -  fill_2  IS MISSING !!!!
*  XFILLER_11_163 -  decap_4  IS MISSING !!!!
*  XFILLER_11_167 -  fill_1  IS MISSING !!!!
*  XFILLER_11_169 -  decap_8  IS MISSING !!!!
*  XFILLER_11_177 -  decap_3  IS MISSING !!!!
*  XFILLER_11_188 -  decap_12  IS MISSING !!!!
*  XFILLER_11_200 -  fill_1  IS MISSING !!!!
*  XFILLER_11_206 -  decap_4  IS MISSING !!!!
*  XFILLER_11_213 -  decap_8  IS MISSING !!!!
*  XFILLER_11_221 -  decap_3  IS MISSING !!!!
*  XFILLER_11_241 -  decap_12  IS MISSING !!!!
*  XFILLER_11_253 -  decap_12  IS MISSING !!!!
*  XFILLER_11_265 -  decap_12  IS MISSING !!!!
*  XFILLER_11_277 -  decap_3  IS MISSING !!!!
*  XFILLER_11_281 -  decap_6  IS MISSING !!!!
*  XFILLER_11_287 -  fill_1  IS MISSING !!!!
*  XFILLER_11_291 -  decap_12  IS MISSING !!!!
*  XFILLER_11_303 -  fill_1  IS MISSING !!!!
*  XFILLER_11_308 -  decap_8  IS MISSING !!!!
*  XFILLER_11_31 -  decap_4  IS MISSING !!!!
*  XFILLER_11_321 -  decap_4  IS MISSING !!!!
*  XFILLER_11_332 -  decap_4  IS MISSING !!!!
*  XFILLER_11_337 -  decap_4  IS MISSING !!!!
*  XFILLER_11_341 -  fill_1  IS MISSING !!!!
*  XFILLER_11_345 -  decap_4  IS MISSING !!!!
*  XFILLER_11_354 -  decap_4  IS MISSING !!!!
*  XFILLER_11_358 -  fill_1  IS MISSING !!!!
*  XFILLER_11_375 -  decap_4  IS MISSING !!!!
*  XFILLER_11_40 -  decap_4  IS MISSING !!!!
*  XFILLER_11_47 -  decap_8  IS MISSING !!!!
*  XFILLER_11_55 -  fill_1  IS MISSING !!!!
*  XFILLER_11_62 -  decap_4  IS MISSING !!!!
*  XFILLER_11_69 -  decap_4  IS MISSING !!!!
*  XFILLER_11_7 -  decap_8  IS MISSING !!!!
*  XFILLER_11_76 -  decap_4  IS MISSING !!!!
*  XFILLER_11_80 -  fill_1  IS MISSING !!!!
*  XFILLER_11_97 -  decap_4  IS MISSING !!!!
*  XFILLER_12_101 -  fill_1  IS MISSING !!!!
*  XFILLER_12_118 -  decap_12  IS MISSING !!!!
*  XFILLER_12_130 -  decap_8  IS MISSING !!!!
*  XFILLER_12_138 -  fill_2  IS MISSING !!!!
*  XFILLER_12_141 -  decap_12  IS MISSING !!!!
*  XFILLER_12_153 -  fill_1  IS MISSING !!!!
*  XFILLER_12_162 -  decap_12  IS MISSING !!!!
*  XFILLER_12_174 -  decap_8  IS MISSING !!!!
*  XFILLER_12_182 -  fill_2  IS MISSING !!!!
*  XFILLER_12_19 -  decap_8  IS MISSING !!!!
*  XFILLER_12_192 -  decap_4  IS MISSING !!!!
*  XFILLER_12_197 -  decap_12  IS MISSING !!!!
*  XFILLER_12_225 -  decap_4  IS MISSING !!!!
*  XFILLER_12_237 -  decap_12  IS MISSING !!!!
*  XFILLER_12_249 -  decap_3  IS MISSING !!!!
*  XFILLER_12_269 -  decap_4  IS MISSING !!!!
*  XFILLER_12_27 -  fill_1  IS MISSING !!!!
*  XFILLER_12_281 -  decap_12  IS MISSING !!!!
*  XFILLER_12_29 -  fill_1  IS MISSING !!!!
*  XFILLER_12_293 -  decap_12  IS MISSING !!!!
*  XFILLER_12_305 -  decap_3  IS MISSING !!!!
*  XFILLER_12_309 -  decap_3  IS MISSING !!!!
*  XFILLER_12_315 -  decap_4  IS MISSING !!!!
*  XFILLER_12_324 -  decap_4  IS MISSING !!!!
*  XFILLER_12_337 -  decap_6  IS MISSING !!!!
*  XFILLER_12_343 -  fill_1  IS MISSING !!!!
*  XFILLER_12_351 -  decap_4  IS MISSING !!!!
*  XFILLER_12_358 -  decap_6  IS MISSING !!!!
*  XFILLER_12_368 -  decap_4  IS MISSING !!!!
*  XFILLER_12_37 -  decap_6  IS MISSING !!!!
*  XFILLER_12_375 -  decap_4  IS MISSING !!!!
*  XFILLER_12_43 -  fill_1  IS MISSING !!!!
*  XFILLER_12_48 -  decap_4  IS MISSING !!!!
*  XFILLER_12_59 -  decap_4  IS MISSING !!!!
*  XFILLER_12_66 -  decap_6  IS MISSING !!!!
*  XFILLER_12_72 -  fill_1  IS MISSING !!!!
*  XFILLER_12_77 -  decap_6  IS MISSING !!!!
*  XFILLER_12_83 -  fill_1  IS MISSING !!!!
*  XFILLER_12_85 -  fill_2  IS MISSING !!!!
*  XFILLER_12_95 -  decap_6  IS MISSING !!!!
*  XFILLER_13_111 -  fill_1  IS MISSING !!!!
*  XFILLER_13_113 -  decap_3  IS MISSING !!!!
*  XFILLER_13_12 -  decap_4  IS MISSING !!!!
*  XFILLER_13_132 -  decap_4  IS MISSING !!!!
*  XFILLER_13_140 -  decap_6  IS MISSING !!!!
*  XFILLER_13_162 -  decap_6  IS MISSING !!!!
*  XFILLER_13_185 -  decap_4  IS MISSING !!!!
*  XFILLER_13_19 -  decap_4  IS MISSING !!!!
*  XFILLER_13_205 -  decap_4  IS MISSING !!!!
*  XFILLER_13_209 -  fill_1  IS MISSING !!!!
*  XFILLER_13_213 -  decap_8  IS MISSING !!!!
*  XFILLER_13_221 -  decap_3  IS MISSING !!!!
*  XFILLER_13_241 -  decap_12  IS MISSING !!!!
*  XFILLER_13_253 -  decap_6  IS MISSING !!!!
*  XFILLER_13_26 -  decap_4  IS MISSING !!!!
*  XFILLER_13_275 -  decap_4  IS MISSING !!!!
*  XFILLER_13_279 -  fill_1  IS MISSING !!!!
*  XFILLER_13_297 -  decap_12  IS MISSING !!!!
*  XFILLER_13_3 -  decap_6  IS MISSING !!!!
*  XFILLER_13_30 -  fill_1  IS MISSING !!!!
*  XFILLER_13_312 -  decap_4  IS MISSING !!!!
*  XFILLER_13_326 -  decap_8  IS MISSING !!!!
*  XFILLER_13_334 -  fill_2  IS MISSING !!!!
*  XFILLER_13_337 -  fill_1  IS MISSING !!!!
*  XFILLER_13_341 -  decap_4  IS MISSING !!!!
*  XFILLER_13_354 -  decap_4  IS MISSING !!!!
*  XFILLER_13_375 -  decap_4  IS MISSING !!!!
*  XFILLER_13_41 -  decap_4  IS MISSING !!!!
*  XFILLER_13_52 -  decap_4  IS MISSING !!!!
*  XFILLER_13_57 -  decap_4  IS MISSING !!!!
*  XFILLER_13_61 -  fill_1  IS MISSING !!!!
*  XFILLER_13_71 -  decap_4  IS MISSING !!!!
*  XFILLER_13_79 -  decap_4  IS MISSING !!!!
*  XFILLER_13_99 -  decap_12  IS MISSING !!!!
*  XFILLER_14_104 -  decap_3  IS MISSING !!!!
*  XFILLER_14_11 -  decap_8  IS MISSING !!!!
*  XFILLER_14_115 -  decap_4  IS MISSING !!!!
*  XFILLER_14_127 -  decap_12  IS MISSING !!!!
*  XFILLER_14_139 -  fill_1  IS MISSING !!!!
*  XFILLER_14_144 -  decap_6  IS MISSING !!!!
*  XFILLER_14_150 -  fill_1  IS MISSING !!!!
*  XFILLER_14_159 -  decap_4  IS MISSING !!!!
*  XFILLER_14_171 -  decap_4  IS MISSING !!!!
*  XFILLER_14_180 -  decap_8  IS MISSING !!!!
*  XFILLER_14_188 -  fill_1  IS MISSING !!!!
*  XFILLER_14_19 -  fill_2  IS MISSING !!!!
*  XFILLER_14_192 -  decap_4  IS MISSING !!!!
*  XFILLER_14_197 -  decap_3  IS MISSING !!!!
*  XFILLER_14_205 -  decap_4  IS MISSING !!!!
*  XFILLER_14_214 -  decap_4  IS MISSING !!!!
*  XFILLER_14_226 -  decap_6  IS MISSING !!!!
*  XFILLER_14_24 -  decap_4  IS MISSING !!!!
*  XFILLER_14_248 -  decap_4  IS MISSING !!!!
*  XFILLER_14_253 -  decap_3  IS MISSING !!!!
*  XFILLER_14_264 -  decap_4  IS MISSING !!!!
*  XFILLER_14_276 -  decap_12  IS MISSING !!!!
*  XFILLER_14_29 -  decap_4  IS MISSING !!!!
*  XFILLER_14_3 -  fill_2  IS MISSING !!!!
*  XFILLER_14_304 -  decap_4  IS MISSING !!!!
*  XFILLER_14_312 -  decap_4  IS MISSING !!!!
*  XFILLER_14_324 -  decap_4  IS MISSING !!!!
*  XFILLER_14_336 -  decap_4  IS MISSING !!!!
*  XFILLER_14_346 -  decap_6  IS MISSING !!!!
*  XFILLER_14_356 -  decap_8  IS MISSING !!!!
*  XFILLER_14_365 -  decap_4  IS MISSING !!!!
*  XFILLER_14_373 -  decap_6  IS MISSING !!!!
*  XFILLER_14_38 -  decap_4  IS MISSING !!!!
*  XFILLER_14_51 -  decap_4  IS MISSING !!!!
*  XFILLER_14_60 -  decap_4  IS MISSING !!!!
*  XFILLER_14_80 -  decap_4  IS MISSING !!!!
*  XFILLER_14_85 -  decap_3  IS MISSING !!!!
*  XFILLER_14_96 -  decap_8  IS MISSING !!!!
*  XFILLER_15_105 -  decap_6  IS MISSING !!!!
*  XFILLER_15_111 -  fill_1  IS MISSING !!!!
*  XFILLER_15_117 -  decap_4  IS MISSING !!!!
*  XFILLER_15_142 -  decap_4  IS MISSING !!!!
*  XFILLER_15_162 -  decap_6  IS MISSING !!!!
*  XFILLER_15_169 -  decap_4  IS MISSING !!!!
*  XFILLER_15_17 -  decap_4  IS MISSING !!!!
*  XFILLER_15_189 -  decap_8  IS MISSING !!!!
*  XFILLER_15_213 -  decap_8  IS MISSING !!!!
*  XFILLER_15_221 -  decap_3  IS MISSING !!!!
*  XFILLER_15_241 -  decap_4  IS MISSING !!!!
*  XFILLER_15_253 -  decap_12  IS MISSING !!!!
*  XFILLER_15_265 -  decap_12  IS MISSING !!!!
*  XFILLER_15_277 -  decap_3  IS MISSING !!!!
*  XFILLER_15_281 -  decap_6  IS MISSING !!!!
*  XFILLER_15_287 -  fill_1  IS MISSING !!!!
*  XFILLER_15_293 -  decap_4  IS MISSING !!!!
*  XFILLER_15_30 -  decap_4  IS MISSING !!!!
*  XFILLER_15_300 -  decap_8  IS MISSING !!!!
*  XFILLER_15_312 -  decap_4  IS MISSING !!!!
*  XFILLER_15_332 -  decap_4  IS MISSING !!!!
*  XFILLER_15_344 -  decap_4  IS MISSING !!!!
*  XFILLER_15_348 -  fill_1  IS MISSING !!!!
*  XFILLER_15_353 -  decap_4  IS MISSING !!!!
*  XFILLER_15_357 -  fill_1  IS MISSING !!!!
*  XFILLER_15_367 -  decap_4  IS MISSING !!!!
*  XFILLER_15_375 -  decap_4  IS MISSING !!!!
*  XFILLER_15_41 -  decap_4  IS MISSING !!!!
*  XFILLER_15_51 -  decap_4  IS MISSING !!!!
*  XFILLER_15_55 -  fill_1  IS MISSING !!!!
*  XFILLER_15_65 -  decap_6  IS MISSING !!!!
*  XFILLER_15_7 -  decap_4  IS MISSING !!!!
*  XFILLER_15_81 -  decap_6  IS MISSING !!!!
*  XFILLER_15_87 -  fill_1  IS MISSING !!!!
*  XFILLER_15_96 -  decap_4  IS MISSING !!!!
*  XFILLER_16_101 -  decap_4  IS MISSING !!!!
*  XFILLER_16_121 -  decap_8  IS MISSING !!!!
*  XFILLER_16_129 -  fill_2  IS MISSING !!!!
*  XFILLER_16_136 -  decap_4  IS MISSING !!!!
*  XFILLER_16_141 -  decap_4  IS MISSING !!!!
*  XFILLER_16_165 -  decap_4  IS MISSING !!!!
*  XFILLER_16_185 -  decap_8  IS MISSING !!!!
*  XFILLER_16_19 -  decap_8  IS MISSING !!!!
*  XFILLER_16_193 -  decap_3  IS MISSING !!!!
*  XFILLER_16_218 -  decap_4  IS MISSING !!!!
*  XFILLER_16_242 -  decap_8  IS MISSING !!!!
*  XFILLER_16_250 -  fill_2  IS MISSING !!!!
*  XFILLER_16_253 -  decap_8  IS MISSING !!!!
*  XFILLER_16_261 -  fill_2  IS MISSING !!!!
*  XFILLER_16_268 -  decap_4  IS MISSING !!!!
*  XFILLER_16_27 -  fill_1  IS MISSING !!!!
*  XFILLER_16_288 -  decap_4  IS MISSING !!!!
*  XFILLER_16_297 -  decap_4  IS MISSING !!!!
*  XFILLER_16_304 -  decap_4  IS MISSING !!!!
*  XFILLER_16_309 -  decap_6  IS MISSING !!!!
*  XFILLER_16_335 -  decap_4  IS MISSING !!!!
*  XFILLER_16_347 -  decap_4  IS MISSING !!!!
*  XFILLER_16_357 -  decap_6  IS MISSING !!!!
*  XFILLER_16_36 -  decap_6  IS MISSING !!!!
*  XFILLER_16_363 -  fill_1  IS MISSING !!!!
*  XFILLER_16_365 -  decap_6  IS MISSING !!!!
*  XFILLER_16_374 -  decap_4  IS MISSING !!!!
*  XFILLER_16_378 -  fill_1  IS MISSING !!!!
*  XFILLER_16_62 -  decap_4  IS MISSING !!!!
*  XFILLER_16_75 -  decap_8  IS MISSING !!!!
*  XFILLER_16_83 -  fill_1  IS MISSING !!!!
*  XFILLER_17_108 -  decap_4  IS MISSING !!!!
*  XFILLER_17_129 -  decap_4  IS MISSING !!!!
*  XFILLER_17_137 -  decap_4  IS MISSING !!!!
*  XFILLER_17_14 -  decap_4  IS MISSING !!!!
*  XFILLER_17_149 -  decap_6  IS MISSING !!!!
*  XFILLER_17_163 -  decap_4  IS MISSING !!!!
*  XFILLER_17_167 -  fill_1  IS MISSING !!!!
*  XFILLER_17_169 -  decap_8  IS MISSING !!!!
*  XFILLER_17_177 -  fill_1  IS MISSING !!!!
*  XFILLER_17_194 -  decap_12  IS MISSING !!!!
*  XFILLER_17_206 -  decap_3  IS MISSING !!!!
*  XFILLER_17_213 -  decap_8  IS MISSING !!!!
*  XFILLER_17_22 -  decap_4  IS MISSING !!!!
*  XFILLER_17_221 -  decap_3  IS MISSING !!!!
*  XFILLER_17_225 -  decap_6  IS MISSING !!!!
*  XFILLER_17_234 -  decap_8  IS MISSING !!!!
*  XFILLER_17_263 -  decap_4  IS MISSING !!!!
*  XFILLER_17_275 -  decap_4  IS MISSING !!!!
*  XFILLER_17_279 -  fill_1  IS MISSING !!!!
*  XFILLER_17_281 -  fill_2  IS MISSING !!!!
*  XFILLER_17_286 -  decap_4  IS MISSING !!!!
*  XFILLER_17_3 -  fill_1  IS MISSING !!!!
*  XFILLER_17_30 -  decap_4  IS MISSING !!!!
*  XFILLER_17_311 -  decap_4  IS MISSING !!!!
*  XFILLER_17_315 -  fill_1  IS MISSING !!!!
*  XFILLER_17_324 -  decap_4  IS MISSING !!!!
*  XFILLER_17_328 -  fill_1  IS MISSING !!!!
*  XFILLER_17_332 -  decap_4  IS MISSING !!!!
*  XFILLER_17_342 -  decap_6  IS MISSING !!!!
*  XFILLER_17_355 -  decap_4  IS MISSING !!!!
*  XFILLER_17_375 -  decap_4  IS MISSING !!!!
*  XFILLER_17_41 -  decap_4  IS MISSING !!!!
*  XFILLER_17_45 -  fill_1  IS MISSING !!!!
*  XFILLER_17_50 -  decap_6  IS MISSING !!!!
*  XFILLER_17_57 -  decap_4  IS MISSING !!!!
*  XFILLER_17_61 -  fill_1  IS MISSING !!!!
*  XFILLER_17_7 -  decap_4  IS MISSING !!!!
*  XFILLER_17_78 -  decap_4  IS MISSING !!!!
*  XFILLER_17_82 -  fill_1  IS MISSING !!!!
*  XFILLER_17_90 -  decap_8  IS MISSING !!!!
*  XFILLER_17_98 -  fill_2  IS MISSING !!!!
*  XFILLER_18_103 -  decap_4  IS MISSING !!!!
*  XFILLER_18_115 -  decap_4  IS MISSING !!!!
*  XFILLER_18_127 -  decap_4  IS MISSING !!!!
*  XFILLER_18_131 -  fill_1  IS MISSING !!!!
*  XFILLER_18_136 -  decap_4  IS MISSING !!!!
*  XFILLER_18_141 -  decap_4  IS MISSING !!!!
*  XFILLER_18_149 -  decap_4  IS MISSING !!!!
*  XFILLER_18_169 -  decap_4  IS MISSING !!!!
*  XFILLER_18_177 -  decap_4  IS MISSING !!!!
*  XFILLER_18_181 -  fill_1  IS MISSING !!!!
*  XFILLER_18_19 -  decap_8  IS MISSING !!!!
*  XFILLER_18_190 -  decap_6  IS MISSING !!!!
*  XFILLER_18_197 -  decap_3  IS MISSING !!!!
*  XFILLER_18_205 -  decap_8  IS MISSING !!!!
*  XFILLER_18_213 -  fill_2  IS MISSING !!!!
*  XFILLER_18_223 -  decap_4  IS MISSING !!!!
*  XFILLER_18_248 -  decap_4  IS MISSING !!!!
*  XFILLER_18_253 -  decap_3  IS MISSING !!!!
*  XFILLER_18_27 -  fill_1  IS MISSING !!!!
*  XFILLER_18_272 -  decap_4  IS MISSING !!!!
*  XFILLER_18_279 -  decap_8  IS MISSING !!!!
*  XFILLER_18_287 -  fill_1  IS MISSING !!!!
*  XFILLER_18_304 -  decap_4  IS MISSING !!!!
*  XFILLER_18_309 -  decap_6  IS MISSING !!!!
*  XFILLER_18_318 -  decap_4  IS MISSING !!!!
*  XFILLER_18_330 -  decap_4  IS MISSING !!!!
*  XFILLER_18_337 -  decap_4  IS MISSING !!!!
*  XFILLER_18_344 -  decap_4  IS MISSING !!!!
*  XFILLER_18_352 -  decap_4  IS MISSING !!!!
*  XFILLER_18_360 -  decap_4  IS MISSING !!!!
*  XFILLER_18_365 -  decap_4  IS MISSING !!!!
*  XFILLER_18_373 -  decap_6  IS MISSING !!!!
*  XFILLER_18_38 -  decap_4  IS MISSING !!!!
*  XFILLER_18_49 -  decap_4  IS MISSING !!!!
*  XFILLER_18_53 -  fill_1  IS MISSING !!!!
*  XFILLER_18_70 -  decap_4  IS MISSING !!!!
*  XFILLER_18_79 -  decap_4  IS MISSING !!!!
*  XFILLER_18_83 -  fill_1  IS MISSING !!!!
*  XFILLER_18_85 -  fill_2  IS MISSING !!!!
*  XFILLER_19_102 -  decap_8  IS MISSING !!!!
*  XFILLER_19_11 -  decap_3  IS MISSING !!!!
*  XFILLER_19_110 -  fill_2  IS MISSING !!!!
*  XFILLER_19_123 -  decap_4  IS MISSING !!!!
*  XFILLER_19_127 -  fill_1  IS MISSING !!!!
*  XFILLER_19_144 -  decap_8  IS MISSING !!!!
*  XFILLER_19_160 -  decap_8  IS MISSING !!!!
*  XFILLER_19_169 -  fill_2  IS MISSING !!!!
*  XFILLER_19_176 -  decap_4  IS MISSING !!!!
*  XFILLER_19_184 -  decap_4  IS MISSING !!!!
*  XFILLER_19_191 -  decap_6  IS MISSING !!!!
*  XFILLER_19_213 -  decap_4  IS MISSING !!!!
*  XFILLER_19_220 -  decap_4  IS MISSING !!!!
*  XFILLER_19_241 -  decap_4  IS MISSING !!!!
*  XFILLER_19_248 -  decap_12  IS MISSING !!!!
*  XFILLER_19_260 -  decap_8  IS MISSING !!!!
*  XFILLER_19_273 -  decap_6  IS MISSING !!!!
*  XFILLER_19_279 -  fill_1  IS MISSING !!!!
*  XFILLER_19_281 -  decap_4  IS MISSING !!!!
*  XFILLER_19_289 -  decap_12  IS MISSING !!!!
*  XFILLER_19_3 -  decap_8  IS MISSING !!!!
*  XFILLER_19_30 -  decap_4  IS MISSING !!!!
*  XFILLER_19_301 -  decap_6  IS MISSING !!!!
*  XFILLER_19_312 -  decap_8  IS MISSING !!!!
*  XFILLER_19_320 -  fill_2  IS MISSING !!!!
*  XFILLER_19_325 -  decap_4  IS MISSING !!!!
*  XFILLER_19_332 -  decap_4  IS MISSING !!!!
*  XFILLER_19_344 -  decap_4  IS MISSING !!!!
*  XFILLER_19_352 -  decap_4  IS MISSING !!!!
*  XFILLER_19_359 -  decap_6  IS MISSING !!!!
*  XFILLER_19_365 -  fill_1  IS MISSING !!!!
*  XFILLER_19_369 -  decap_8  IS MISSING !!!!
*  XFILLER_19_377 -  fill_2  IS MISSING !!!!
*  XFILLER_19_43 -  decap_4  IS MISSING !!!!
*  XFILLER_19_52 -  decap_4  IS MISSING !!!!
*  XFILLER_19_64 -  decap_6  IS MISSING !!!!
*  XFILLER_19_80 -  decap_4  IS MISSING !!!!
*  XFILLER_19_88 -  decap_4  IS MISSING !!!!
*  XFILLER_1_105 -  decap_6  IS MISSING !!!!
*  XFILLER_1_11 -  decap_4  IS MISSING !!!!
*  XFILLER_1_111 -  fill_1  IS MISSING !!!!
*  XFILLER_1_116 -  decap_6  IS MISSING !!!!
*  XFILLER_1_122 -  fill_1  IS MISSING !!!!
*  XFILLER_1_128 -  decap_4  IS MISSING !!!!
*  XFILLER_1_148 -  decap_8  IS MISSING !!!!
*  XFILLER_1_156 -  fill_2  IS MISSING !!!!
*  XFILLER_1_163 -  decap_4  IS MISSING !!!!
*  XFILLER_1_167 -  fill_1  IS MISSING !!!!
*  XFILLER_1_169 -  decap_3  IS MISSING !!!!
*  XFILLER_1_188 -  decap_8  IS MISSING !!!!
*  XFILLER_1_196 -  fill_2  IS MISSING !!!!
*  XFILLER_1_214 -  decap_8  IS MISSING !!!!
*  XFILLER_1_222 -  fill_2  IS MISSING !!!!
*  XFILLER_1_228 -  decap_4  IS MISSING !!!!
*  XFILLER_1_232 -  fill_1  IS MISSING !!!!
*  XFILLER_1_24 -  decap_4  IS MISSING !!!!
*  XFILLER_1_249 -  decap_4  IS MISSING !!!!
*  XFILLER_1_269 -  decap_4  IS MISSING !!!!
*  XFILLER_1_276 -  decap_4  IS MISSING !!!!
*  XFILLER_1_286 -  decap_4  IS MISSING !!!!
*  XFILLER_1_293 -  decap_4  IS MISSING !!!!
*  XFILLER_1_3 -  decap_3  IS MISSING !!!!
*  XFILLER_1_31 -  decap_4  IS MISSING !!!!
*  XFILLER_1_313 -  decap_12  IS MISSING !!!!
*  XFILLER_1_325 -  decap_8  IS MISSING !!!!
*  XFILLER_1_333 -  decap_3  IS MISSING !!!!
*  XFILLER_1_35 -  fill_1  IS MISSING !!!!
*  XFILLER_1_353 -  decap_4  IS MISSING !!!!
*  XFILLER_1_360 -  decap_12  IS MISSING !!!!
*  XFILLER_1_372 -  decap_6  IS MISSING !!!!
*  XFILLER_1_378 -  fill_1  IS MISSING !!!!
*  XFILLER_1_52 -  decap_4  IS MISSING !!!!
*  XFILLER_1_57 -  decap_6  IS MISSING !!!!
*  XFILLER_1_79 -  decap_8  IS MISSING !!!!
*  XFILLER_1_87 -  fill_2  IS MISSING !!!!
*  XFILLER_20_120 -  decap_8  IS MISSING !!!!
*  XFILLER_20_128 -  fill_2  IS MISSING !!!!
*  XFILLER_20_13 -  fill_1  IS MISSING !!!!
*  XFILLER_20_135 -  decap_4  IS MISSING !!!!
*  XFILLER_20_139 -  fill_1  IS MISSING !!!!
*  XFILLER_20_144 -  decap_4  IS MISSING !!!!
*  XFILLER_20_164 -  decap_6  IS MISSING !!!!
*  XFILLER_20_170 -  fill_1  IS MISSING !!!!
*  XFILLER_20_18 -  decap_8  IS MISSING !!!!
*  XFILLER_20_187 -  decap_8  IS MISSING !!!!
*  XFILLER_20_195 -  fill_1  IS MISSING !!!!
*  XFILLER_20_197 -  decap_4  IS MISSING !!!!
*  XFILLER_20_205 -  decap_8  IS MISSING !!!!
*  XFILLER_20_213 -  fill_2  IS MISSING !!!!
*  XFILLER_20_220 -  decap_4  IS MISSING !!!!
*  XFILLER_20_240 -  decap_4  IS MISSING !!!!
*  XFILLER_20_248 -  decap_4  IS MISSING !!!!
*  XFILLER_20_253 -  fill_1  IS MISSING !!!!
*  XFILLER_20_259 -  decap_6  IS MISSING !!!!
*  XFILLER_20_26 -  fill_2  IS MISSING !!!!
*  XFILLER_20_265 -  fill_1  IS MISSING !!!!
*  XFILLER_20_282 -  decap_4  IS MISSING !!!!
*  XFILLER_20_286 -  fill_1  IS MISSING !!!!
*  XFILLER_20_292 -  decap_4  IS MISSING !!!!
*  XFILLER_20_300 -  decap_8  IS MISSING !!!!
*  XFILLER_20_312 -  decap_4  IS MISSING !!!!
*  XFILLER_20_32 -  decap_4  IS MISSING !!!!
*  XFILLER_20_332 -  decap_4  IS MISSING !!!!
*  XFILLER_20_343 -  decap_6  IS MISSING !!!!
*  XFILLER_20_356 -  decap_8  IS MISSING !!!!
*  XFILLER_20_373 -  decap_6  IS MISSING !!!!
*  XFILLER_20_41 -  decap_4  IS MISSING !!!!
*  XFILLER_20_54 -  decap_4  IS MISSING !!!!
*  XFILLER_20_67 -  decap_4  IS MISSING !!!!
*  XFILLER_20_7 -  decap_6  IS MISSING !!!!
*  XFILLER_20_80 -  decap_4  IS MISSING !!!!
*  XFILLER_20_85 -  decap_3  IS MISSING !!!!
*  XFILLER_20_98 -  decap_6  IS MISSING !!!!
*  XFILLER_21_100 -  decap_4  IS MISSING !!!!
*  XFILLER_21_108 -  decap_4  IS MISSING !!!!
*  XFILLER_21_113 -  fill_1  IS MISSING !!!!
*  XFILLER_21_118 -  decap_4  IS MISSING !!!!
*  XFILLER_21_143 -  decap_8  IS MISSING !!!!
*  XFILLER_21_151 -  fill_1  IS MISSING !!!!
*  XFILLER_21_156 -  decap_4  IS MISSING !!!!
*  XFILLER_21_16 -  decap_8  IS MISSING !!!!
*  XFILLER_21_164 -  decap_4  IS MISSING !!!!
*  XFILLER_21_169 -  decap_6  IS MISSING !!!!
*  XFILLER_21_175 -  fill_1  IS MISSING !!!!
*  XFILLER_21_180 -  decap_6  IS MISSING !!!!
*  XFILLER_21_207 -  decap_4  IS MISSING !!!!
*  XFILLER_21_215 -  decap_8  IS MISSING !!!!
*  XFILLER_21_223 -  fill_1  IS MISSING !!!!
*  XFILLER_21_229 -  decap_4  IS MISSING !!!!
*  XFILLER_21_233 -  fill_1  IS MISSING !!!!
*  XFILLER_21_24 -  fill_2  IS MISSING !!!!
*  XFILLER_21_255 -  decap_4  IS MISSING !!!!
*  XFILLER_21_275 -  decap_4  IS MISSING !!!!
*  XFILLER_21_279 -  fill_1  IS MISSING !!!!
*  XFILLER_21_284 -  decap_4  IS MISSING !!!!
*  XFILLER_21_3 -  decap_4  IS MISSING !!!!
*  XFILLER_21_30 -  decap_4  IS MISSING !!!!
*  XFILLER_21_304 -  decap_8  IS MISSING !!!!
*  XFILLER_21_321 -  decap_6  IS MISSING !!!!
*  XFILLER_21_327 -  fill_1  IS MISSING !!!!
*  XFILLER_21_332 -  decap_4  IS MISSING !!!!
*  XFILLER_21_342 -  decap_4  IS MISSING !!!!
*  XFILLER_21_346 -  fill_1  IS MISSING !!!!
*  XFILLER_21_355 -  decap_4  IS MISSING !!!!
*  XFILLER_21_375 -  decap_4  IS MISSING !!!!
*  XFILLER_21_41 -  decap_4  IS MISSING !!!!
*  XFILLER_21_52 -  decap_4  IS MISSING !!!!
*  XFILLER_21_57 -  decap_4  IS MISSING !!!!
*  XFILLER_21_7 -  fill_1  IS MISSING !!!!
*  XFILLER_21_70 -  decap_4  IS MISSING !!!!
*  XFILLER_21_74 -  fill_1  IS MISSING !!!!
*  XFILLER_21_84 -  decap_8  IS MISSING !!!!
*  XFILLER_21_92 -  fill_1  IS MISSING !!!!
*  XFILLER_22_104 -  decap_4  IS MISSING !!!!
*  XFILLER_22_116 -  decap_4  IS MISSING !!!!
*  XFILLER_22_128 -  decap_4  IS MISSING !!!!
*  XFILLER_22_136 -  decap_4  IS MISSING !!!!
*  XFILLER_22_145 -  decap_4  IS MISSING !!!!
*  XFILLER_22_149 -  fill_1  IS MISSING !!!!
*  XFILLER_22_158 -  decap_8  IS MISSING !!!!
*  XFILLER_22_166 -  fill_1  IS MISSING !!!!
*  XFILLER_22_172 -  decap_4  IS MISSING !!!!
*  XFILLER_22_19 -  decap_8  IS MISSING !!!!
*  XFILLER_22_192 -  decap_4  IS MISSING !!!!
*  XFILLER_22_205 -  decap_4  IS MISSING !!!!
*  XFILLER_22_214 -  decap_8  IS MISSING !!!!
*  XFILLER_22_226 -  decap_8  IS MISSING !!!!
*  XFILLER_22_234 -  fill_2  IS MISSING !!!!
*  XFILLER_22_240 -  decap_4  IS MISSING !!!!
*  XFILLER_22_248 -  decap_4  IS MISSING !!!!
*  XFILLER_22_253 -  fill_2  IS MISSING !!!!
*  XFILLER_22_263 -  decap_4  IS MISSING !!!!
*  XFILLER_22_27 -  fill_1  IS MISSING !!!!
*  XFILLER_22_288 -  decap_4  IS MISSING !!!!
*  XFILLER_22_295 -  decap_4  IS MISSING !!!!
*  XFILLER_22_304 -  decap_4  IS MISSING !!!!
*  XFILLER_22_309 -  decap_3  IS MISSING !!!!
*  XFILLER_22_322 -  decap_8  IS MISSING !!!!
*  XFILLER_22_338 -  decap_4  IS MISSING !!!!
*  XFILLER_22_34 -  decap_6  IS MISSING !!!!
*  XFILLER_22_347 -  decap_4  IS MISSING !!!!
*  XFILLER_22_360 -  decap_4  IS MISSING !!!!
*  XFILLER_22_372 -  decap_6  IS MISSING !!!!
*  XFILLER_22_378 -  fill_1  IS MISSING !!!!
*  XFILLER_22_61 -  decap_4  IS MISSING !!!!
*  XFILLER_22_69 -  decap_4  IS MISSING !!!!
*  XFILLER_22_80 -  decap_4  IS MISSING !!!!
*  XFILLER_22_85 -  decap_3  IS MISSING !!!!
*  XFILLER_22_95 -  decap_4  IS MISSING !!!!
*  XFILLER_23_108 -  decap_4  IS MISSING !!!!
*  XFILLER_23_113 -  decap_4  IS MISSING !!!!
*  XFILLER_23_117 -  fill_1  IS MISSING !!!!
*  XFILLER_23_134 -  decap_4  IS MISSING !!!!
*  XFILLER_23_138 -  fill_1  IS MISSING !!!!
*  XFILLER_23_143 -  decap_4  IS MISSING !!!!
*  XFILLER_23_163 -  decap_4  IS MISSING !!!!
*  XFILLER_23_167 -  fill_1  IS MISSING !!!!
*  XFILLER_23_169 -  decap_4  IS MISSING !!!!
*  XFILLER_23_17 -  decap_4  IS MISSING !!!!
*  XFILLER_23_173 -  fill_1  IS MISSING !!!!
*  XFILLER_23_194 -  decap_8  IS MISSING !!!!
*  XFILLER_23_202 -  fill_2  IS MISSING !!!!
*  XFILLER_23_220 -  decap_4  IS MISSING !!!!
*  XFILLER_23_228 -  decap_4  IS MISSING !!!!
*  XFILLER_23_248 -  decap_8  IS MISSING !!!!
*  XFILLER_23_276 -  decap_4  IS MISSING !!!!
*  XFILLER_23_286 -  decap_8  IS MISSING !!!!
*  XFILLER_23_294 -  fill_2  IS MISSING !!!!
*  XFILLER_23_305 -  decap_4  IS MISSING !!!!
*  XFILLER_23_314 -  decap_4  IS MISSING !!!!
*  XFILLER_23_321 -  decap_4  IS MISSING !!!!
*  XFILLER_23_329 -  decap_6  IS MISSING !!!!
*  XFILLER_23_335 -  fill_1  IS MISSING !!!!
*  XFILLER_23_340 -  decap_4  IS MISSING !!!!
*  XFILLER_23_349 -  decap_4  IS MISSING !!!!
*  XFILLER_23_359 -  decap_4  IS MISSING !!!!
*  XFILLER_23_366 -  decap_4  IS MISSING !!!!
*  XFILLER_23_37 -  decap_6  IS MISSING !!!!
*  XFILLER_23_373 -  decap_6  IS MISSING !!!!
*  XFILLER_23_48 -  decap_8  IS MISSING !!!!
*  XFILLER_23_57 -  decap_3  IS MISSING !!!!
*  XFILLER_23_67 -  decap_4  IS MISSING !!!!
*  XFILLER_23_7 -  decap_6  IS MISSING !!!!
*  XFILLER_23_78 -  decap_4  IS MISSING !!!!
*  XFILLER_23_87 -  decap_4  IS MISSING !!!!
*  XFILLER_23_91 -  fill_1  IS MISSING !!!!
*  XFILLER_24_119 -  decap_4  IS MISSING !!!!
*  XFILLER_24_131 -  decap_8  IS MISSING !!!!
*  XFILLER_24_139 -  fill_1  IS MISSING !!!!
*  XFILLER_24_141 -  fill_2  IS MISSING !!!!
*  XFILLER_24_15 -  fill_1  IS MISSING !!!!
*  XFILLER_24_152 -  decap_8  IS MISSING !!!!
*  XFILLER_24_160 -  fill_2  IS MISSING !!!!
*  XFILLER_24_178 -  decap_4  IS MISSING !!!!
*  XFILLER_24_182 -  fill_1  IS MISSING !!!!
*  XFILLER_24_187 -  decap_8  IS MISSING !!!!
*  XFILLER_24_19 -  decap_8  IS MISSING !!!!
*  XFILLER_24_195 -  fill_1  IS MISSING !!!!
*  XFILLER_24_197 -  decap_4  IS MISSING !!!!
*  XFILLER_24_205 -  decap_4  IS MISSING !!!!
*  XFILLER_24_214 -  decap_8  IS MISSING !!!!
*  XFILLER_24_222 -  fill_2  IS MISSING !!!!
*  XFILLER_24_245 -  decap_6  IS MISSING !!!!
*  XFILLER_24_251 -  fill_1  IS MISSING !!!!
*  XFILLER_24_256 -  decap_6  IS MISSING !!!!
*  XFILLER_24_27 -  fill_1  IS MISSING !!!!
*  XFILLER_24_278 -  decap_4  IS MISSING !!!!
*  XFILLER_24_291 -  decap_4  IS MISSING !!!!
*  XFILLER_24_298 -  decap_8  IS MISSING !!!!
*  XFILLER_24_3 -  decap_12  IS MISSING !!!!
*  XFILLER_24_306 -  fill_2  IS MISSING !!!!
*  XFILLER_24_318 -  decap_4  IS MISSING !!!!
*  XFILLER_24_331 -  decap_4  IS MISSING !!!!
*  XFILLER_24_338 -  decap_8  IS MISSING !!!!
*  XFILLER_24_34 -  decap_8  IS MISSING !!!!
*  XFILLER_24_353 -  decap_4  IS MISSING !!!!
*  XFILLER_24_360 -  decap_4  IS MISSING !!!!
*  XFILLER_24_373 -  decap_6  IS MISSING !!!!
*  XFILLER_24_42 -  fill_1  IS MISSING !!!!
*  XFILLER_24_47 -  decap_6  IS MISSING !!!!
*  XFILLER_24_53 -  fill_1  IS MISSING !!!!
*  XFILLER_24_70 -  decap_4  IS MISSING !!!!
*  XFILLER_24_74 -  fill_1  IS MISSING !!!!
*  XFILLER_24_80 -  decap_4  IS MISSING !!!!
*  XFILLER_24_92 -  decap_6  IS MISSING !!!!