** sch_path: /home/omare/Documents/UWASIC/Schemify/test/examples/xschem_sky130/xschem_verilog_import/spm.sch
.subckt spm VGND VPWR clk p rst y


*  p1223 -  ipin  IS MISSING !!!!
*  p1224 -  ipin  IS MISSING !!!!
*  p1225 -  ipin  IS MISSING !!!!
*  p1226 -  opin  IS MISSING !!!!
*  p1227 -  ipin  IS MISSING !!!!
*  p1228 -  ipin  IS MISSING !!!!
*  p1229 -  ipin  IS MISSING !!!!
*  XFILLER_0_100 -  decap_12  IS MISSING !!!!
*  XFILLER_0_113 -  decap_12  IS MISSING !!!!
*  XFILLER_0_128 -  decap_4  IS MISSING !!!!
*  XFILLER_0_135 -  decap_4  IS MISSING !!!!
*  XFILLER_0_139 -  fill_1  IS MISSING !!!!
*  XFILLER_0_141 -  decap_3  IS MISSING !!!!
*  XFILLER_0_147 -  decap_4  IS MISSING !!!!
*  XFILLER_0_15 -  decap_12  IS MISSING !!!!
*  XFILLER_0_154 -  decap_4  IS MISSING !!!!
*  XFILLER_0_158 -  fill_1  IS MISSING !!!!
*  XFILLER_0_162 -  decap_6  IS MISSING !!!!
*  XFILLER_0_169 -  decap_12  IS MISSING !!!!
*  XFILLER_0_181 -  decap_6  IS MISSING !!!!
*  XFILLER_0_187 -  fill_1  IS MISSING !!!!
*  XFILLER_0_27 -  fill_1  IS MISSING !!!!
*  XFILLER_0_29 -  decap_4  IS MISSING !!!!
*  XFILLER_0_3 -  decap_12  IS MISSING !!!!
*  XFILLER_0_33 -  fill_1  IS MISSING !!!!
*  XFILLER_0_37 -  decap_6  IS MISSING !!!!
*  XFILLER_0_50 -  decap_6  IS MISSING !!!!
*  XFILLER_0_57 -  decap_12  IS MISSING !!!!
*  XFILLER_0_69 -  decap_12  IS MISSING !!!!
*  XFILLER_0_81 -  decap_3  IS MISSING !!!!
*  XFILLER_0_85 -  decap_12  IS MISSING !!!!
*  XFILLER_10_105 -  decap_4  IS MISSING !!!!
*  XFILLER_10_119 -  decap_4  IS MISSING !!!!
*  XFILLER_10_13 -  decap_4  IS MISSING !!!!
*  XFILLER_10_131 -  decap_8  IS MISSING !!!!
*  XFILLER_10_139 -  fill_1  IS MISSING !!!!
*  XFILLER_10_141 -  decap_4  IS MISSING !!!!
*  XFILLER_10_155 -  decap_8  IS MISSING !!!!
*  XFILLER_10_163 -  fill_1  IS MISSING !!!!
*  XFILLER_10_184 -  decap_4  IS MISSING !!!!
*  XFILLER_10_24 -  decap_4  IS MISSING !!!!
*  XFILLER_10_29 -  decap_4  IS MISSING !!!!
*  XFILLER_10_3 -  fill_2  IS MISSING !!!!
*  XFILLER_10_37 -  decap_4  IS MISSING !!!!
*  XFILLER_10_49 -  decap_6  IS MISSING !!!!
*  XFILLER_10_55 -  fill_1  IS MISSING !!!!
*  XFILLER_10_76 -  decap_8  IS MISSING !!!!
*  XFILLER_10_93 -  decap_4  IS MISSING !!!!
*  XFILLER_11_10 -  decap_6  IS MISSING !!!!
*  XFILLER_11_104 -  decap_8  IS MISSING !!!!
*  XFILLER_11_113 -  decap_4  IS MISSING !!!!
*  XFILLER_11_124 -  decap_8  IS MISSING !!!!
*  XFILLER_11_137 -  decap_4  IS MISSING !!!!
*  XFILLER_11_141 -  fill_1  IS MISSING !!!!
*  XFILLER_11_147 -  decap_4  IS MISSING !!!!
*  XFILLER_11_156 -  decap_4  IS MISSING !!!!
*  XFILLER_11_16 -  fill_1  IS MISSING !!!!
*  XFILLER_11_163 -  decap_4  IS MISSING !!!!
*  XFILLER_11_167 -  fill_1  IS MISSING !!!!
*  XFILLER_11_177 -  decap_4  IS MISSING !!!!
*  XFILLER_11_184 -  decap_4  IS MISSING !!!!
*  XFILLER_11_20 -  decap_12  IS MISSING !!!!
*  XFILLER_11_3 -  fill_2  IS MISSING !!!!
*  XFILLER_11_32 -  decap_6  IS MISSING !!!!
*  XFILLER_11_38 -  fill_1  IS MISSING !!!!
*  XFILLER_11_46 -  decap_8  IS MISSING !!!!
*  XFILLER_11_54 -  fill_2  IS MISSING !!!!
*  XFILLER_11_57 -  fill_2  IS MISSING !!!!
*  XFILLER_11_62 -  decap_4  IS MISSING !!!!
*  XFILLER_11_70 -  decap_8  IS MISSING !!!!
*  XFILLER_11_78 -  decap_3  IS MISSING !!!!
*  XFILLER_11_88 -  decap_4  IS MISSING !!!!
*  XFILLER_11_95 -  decap_4  IS MISSING !!!!
*  XFILLER_11_99 -  fill_1  IS MISSING !!!!
*  XFILLER_12_11 -  decap_3  IS MISSING !!!!
*  XFILLER_12_115 -  decap_4  IS MISSING !!!!
*  XFILLER_12_122 -  decap_6  IS MISSING !!!!
*  XFILLER_12_128 -  fill_1  IS MISSING !!!!
*  XFILLER_12_133 -  decap_6  IS MISSING !!!!
*  XFILLER_12_139 -  fill_1  IS MISSING !!!!
*  XFILLER_12_161 -  decap_12  IS MISSING !!!!
*  XFILLER_12_17 -  decap_8  IS MISSING !!!!
*  XFILLER_12_173 -  decap_3  IS MISSING !!!!
*  XFILLER_12_179 -  decap_8  IS MISSING !!!!
*  XFILLER_12_187 -  fill_1  IS MISSING !!!!
*  XFILLER_12_25 -  decap_3  IS MISSING !!!!
*  XFILLER_12_3 -  decap_8  IS MISSING !!!!
*  XFILLER_12_49 -  decap_8  IS MISSING !!!!
*  XFILLER_12_57 -  fill_1  IS MISSING !!!!
*  XFILLER_12_62 -  decap_4  IS MISSING !!!!
*  XFILLER_12_66 -  fill_1  IS MISSING !!!!
*  XFILLER_12_75 -  decap_8  IS MISSING !!!!
*  XFILLER_12_83 -  fill_1  IS MISSING !!!!
*  XFILLER_12_89 -  decap_6  IS MISSING !!!!
*  XFILLER_13_108 -  decap_4  IS MISSING !!!!
*  XFILLER_13_120 -  decap_4  IS MISSING !!!!
*  XFILLER_13_127 -  decap_4  IS MISSING !!!!
*  XFILLER_13_134 -  decap_12  IS MISSING !!!!
*  XFILLER_13_146 -  decap_3  IS MISSING !!!!
*  XFILLER_13_152 -  decap_8  IS MISSING !!!!
*  XFILLER_13_160 -  fill_1  IS MISSING !!!!
*  XFILLER_13_164 -  decap_4  IS MISSING !!!!
*  XFILLER_13_169 -  decap_4  IS MISSING !!!!
*  XFILLER_13_181 -  decap_6  IS MISSING !!!!
*  XFILLER_13_187 -  fill_1  IS MISSING !!!!
*  XFILLER_13_23 -  decap_4  IS MISSING !!!!
*  XFILLER_13_35 -  decap_4  IS MISSING !!!!
*  XFILLER_13_42 -  decap_4  IS MISSING !!!!
*  XFILLER_13_49 -  decap_6  IS MISSING !!!!
*  XFILLER_13_55 -  fill_1  IS MISSING !!!!
*  XFILLER_13_77 -  decap_4  IS MISSING !!!!
*  XFILLER_13_84 -  decap_4  IS MISSING !!!!
*  XFILLER_13_96 -  decap_4  IS MISSING !!!!
*  XFILLER_14_110 -  decap_4  IS MISSING !!!!
*  XFILLER_14_134 -  decap_6  IS MISSING !!!!
*  XFILLER_14_141 -  fill_2  IS MISSING !!!!
*  XFILLER_14_146 -  decap_6  IS MISSING !!!!
*  XFILLER_14_15 -  decap_3  IS MISSING !!!!
*  XFILLER_14_160 -  decap_4  IS MISSING !!!!
*  XFILLER_14_184 -  decap_4  IS MISSING !!!!
*  XFILLER_14_21 -  decap_6  IS MISSING !!!!
*  XFILLER_14_27 -  fill_1  IS MISSING !!!!
*  XFILLER_14_3 -  decap_12  IS MISSING !!!!
*  XFILLER_14_37 -  decap_4  IS MISSING !!!!
*  XFILLER_14_44 -  decap_8  IS MISSING !!!!
*  XFILLER_14_52 -  decap_3  IS MISSING !!!!
*  XFILLER_14_58 -  decap_4  IS MISSING !!!!
*  XFILLER_14_66 -  decap_4  IS MISSING !!!!
*  XFILLER_14_78 -  decap_6  IS MISSING !!!!
*  XFILLER_14_85 -  decap_4  IS MISSING !!!!
*  XFILLER_14_89 -  fill_1  IS MISSING !!!!
*  XFILLER_15_100 -  decap_12  IS MISSING !!!!
*  XFILLER_15_116 -  decap_12  IS MISSING !!!!
*  XFILLER_15_128 -  decap_4  IS MISSING !!!!
*  XFILLER_15_152 -  decap_4  IS MISSING !!!!
*  XFILLER_15_164 -  decap_4  IS MISSING !!!!
*  XFILLER_15_176 -  decap_4  IS MISSING !!!!
*  XFILLER_15_180 -  fill_1  IS MISSING !!!!
*  XFILLER_15_184 -  decap_4  IS MISSING !!!!
*  XFILLER_15_23 -  decap_8  IS MISSING !!!!
*  XFILLER_15_31 -  fill_1  IS MISSING !!!!
*  XFILLER_15_52 -  decap_4  IS MISSING !!!!
*  XFILLER_15_57 -  fill_1  IS MISSING !!!!
*  XFILLER_15_68 -  decap_4  IS MISSING !!!!
*  XFILLER_15_72 -  fill_1  IS MISSING !!!!
*  XFILLER_15_93 -  decap_4  IS MISSING !!!!
*  XFILLER_16_116 -  decap_4  IS MISSING !!!!
*  XFILLER_16_120 -  fill_1  IS MISSING !!!!
*  XFILLER_16_125 -  decap_4  IS MISSING !!!!
*  XFILLER_16_132 -  decap_8  IS MISSING !!!!
*  XFILLER_16_141 -  decap_4  IS MISSING !!!!
*  XFILLER_16_145 -  fill_1  IS MISSING !!!!
*  XFILLER_16_154 -  decap_4  IS MISSING !!!!
*  XFILLER_16_165 -  decap_6  IS MISSING !!!!
*  XFILLER_16_171 -  fill_1  IS MISSING !!!!
*  XFILLER_16_175 -  decap_4  IS MISSING !!!!
*  XFILLER_16_18 -  decap_8  IS MISSING !!!!
*  XFILLER_16_182 -  decap_6  IS MISSING !!!!
*  XFILLER_16_26 -  fill_2  IS MISSING !!!!
*  XFILLER_16_36 -  decap_6  IS MISSING !!!!
*  XFILLER_16_42 -  fill_1  IS MISSING !!!!
*  XFILLER_16_46 -  decap_12  IS MISSING !!!!
*  XFILLER_16_61 -  decap_4  IS MISSING !!!!
*  XFILLER_16_68 -  decap_8  IS MISSING !!!!
*  XFILLER_16_7 -  decap_8  IS MISSING !!!!
*  XFILLER_16_76 -  fill_1  IS MISSING !!!!
*  XFILLER_16_80 -  decap_4  IS MISSING !!!!
*  XFILLER_16_92 -  decap_4  IS MISSING !!!!
*  XFILLER_17_104 -  decap_8  IS MISSING !!!!
*  XFILLER_17_113 -  decap_4  IS MISSING !!!!
*  XFILLER_17_125 -  decap_4  IS MISSING !!!!
*  XFILLER_17_132 -  decap_4  IS MISSING !!!!
*  XFILLER_17_139 -  decap_4  IS MISSING !!!!
*  XFILLER_17_15 -  fill_1  IS MISSING !!!!
*  XFILLER_17_163 -  decap_4  IS MISSING !!!!
*  XFILLER_17_167 -  fill_1  IS MISSING !!!!
*  XFILLER_17_169 -  decap_3  IS MISSING !!!!
*  XFILLER_17_175 -  decap_4  IS MISSING !!!!
*  XFILLER_17_182 -  decap_6  IS MISSING !!!!
*  XFILLER_17_3 -  decap_12  IS MISSING !!!!
*  XFILLER_17_36 -  decap_4  IS MISSING !!!!
*  XFILLER_17_40 -  fill_1  IS MISSING !!!!
*  XFILLER_17_51 -  decap_4  IS MISSING !!!!
*  XFILLER_17_55 -  fill_1  IS MISSING !!!!
*  XFILLER_17_57 -  fill_1  IS MISSING !!!!
*  XFILLER_17_61 -  decap_4  IS MISSING !!!!
*  XFILLER_17_73 -  decap_4  IS MISSING !!!!
*  XFILLER_17_97 -  decap_4  IS MISSING !!!!
*  XFILLER_18_100 -  decap_4  IS MISSING !!!!
*  XFILLER_18_112 -  decap_4  IS MISSING !!!!
*  XFILLER_18_136 -  decap_4  IS MISSING !!!!
*  XFILLER_18_14 -  decap_6  IS MISSING !!!!
*  XFILLER_18_141 -  decap_8  IS MISSING !!!!
*  XFILLER_18_152 -  decap_4  IS MISSING !!!!
*  XFILLER_18_159 -  decap_4  IS MISSING !!!!
*  XFILLER_18_163 -  fill_1  IS MISSING !!!!
*  XFILLER_18_184 -  decap_4  IS MISSING !!!!
*  XFILLER_18_20 -  fill_1  IS MISSING !!!!
*  XFILLER_18_24 -  decap_4  IS MISSING !!!!
*  XFILLER_18_3 -  decap_3  IS MISSING !!!!
*  XFILLER_18_32 -  decap_4  IS MISSING !!!!
*  XFILLER_18_39 -  decap_4  IS MISSING !!!!
*  XFILLER_18_47 -  decap_4  IS MISSING !!!!
*  XFILLER_18_71 -  decap_12  IS MISSING !!!!
*  XFILLER_18_83 -  fill_1  IS MISSING !!!!
*  XFILLER_18_93 -  decap_4  IS MISSING !!!!
*  XFILLER_19_102 -  decap_8  IS MISSING !!!!
*  XFILLER_19_110 -  fill_2  IS MISSING !!!!
*  XFILLER_19_113 -  decap_3  IS MISSING !!!!
*  XFILLER_19_123 -  decap_4  IS MISSING !!!!
*  XFILLER_19_131 -  decap_12  IS MISSING !!!!
*  XFILLER_19_153 -  decap_4  IS MISSING !!!!
*  XFILLER_19_164 -  decap_4  IS MISSING !!!!
*  XFILLER_19_177 -  decap_4  IS MISSING !!!!
*  XFILLER_19_184 -  decap_4  IS MISSING !!!!
*  XFILLER_19_19 -  decap_12  IS MISSING !!!!
*  XFILLER_19_3 -  decap_8  IS MISSING !!!!
*  XFILLER_19_38 -  decap_4  IS MISSING !!!!
*  XFILLER_19_46 -  decap_8  IS MISSING !!!!
*  XFILLER_19_54 -  fill_2  IS MISSING !!!!
*  XFILLER_19_60 -  decap_4  IS MISSING !!!!
*  XFILLER_19_67 -  decap_4  IS MISSING !!!!
*  XFILLER_19_78 -  decap_12  IS MISSING !!!!
*  XFILLER_19_90 -  decap_12  IS MISSING !!!!
*  XFILLER_1_104 -  fill_1  IS MISSING !!!!
*  XFILLER_1_108 -  decap_4  IS MISSING !!!!
*  XFILLER_1_116 -  decap_8  IS MISSING !!!!
*  XFILLER_1_124 -  fill_1  IS MISSING !!!!
*  XFILLER_1_145 -  decap_6  IS MISSING !!!!
*  XFILLER_1_159 -  decap_8  IS MISSING !!!!
*  XFILLER_1_167 -  fill_1  IS MISSING !!!!
*  XFILLER_1_169 -  decap_12  IS MISSING !!!!
*  XFILLER_1_18 -  decap_4  IS MISSING !!!!
*  XFILLER_1_181 -  decap_6  IS MISSING !!!!
*  XFILLER_1_187 -  fill_1  IS MISSING !!!!
*  XFILLER_1_22 -  fill_1  IS MISSING !!!!
*  XFILLER_1_3 -  decap_8  IS MISSING !!!!
*  XFILLER_1_43 -  decap_4  IS MISSING !!!!
*  XFILLER_1_50 -  decap_6  IS MISSING !!!!
*  XFILLER_1_60 -  decap_4  IS MISSING !!!!
*  XFILLER_1_64 -  fill_1  IS MISSING !!!!
*  XFILLER_1_75 -  decap_12  IS MISSING !!!!
*  XFILLER_1_87 -  decap_8  IS MISSING !!!!
*  XFILLER_1_98 -  decap_6  IS MISSING !!!!
*  XFILLER_20_11 -  fill_1  IS MISSING !!!!
*  XFILLER_20_118 -  decap_12  IS MISSING !!!!
*  XFILLER_20_130 -  fill_2  IS MISSING !!!!
*  XFILLER_20_135 -  decap_4  IS MISSING !!!!
*  XFILLER_20_139 -  fill_1  IS MISSING !!!!
*  XFILLER_20_144 -  decap_6  IS MISSING !!!!
*  XFILLER_20_153 -  decap_4  IS MISSING !!!!
*  XFILLER_20_160 -  decap_4  IS MISSING !!!!
*  XFILLER_20_167 -  decap_4  IS MISSING !!!!
*  XFILLER_20_174 -  decap_4  IS MISSING !!!!
*  XFILLER_20_181 -  decap_6  IS MISSING !!!!
*  XFILLER_20_187 -  fill_1  IS MISSING !!!!
*  XFILLER_20_19 -  decap_8  IS MISSING !!!!
*  XFILLER_20_27 -  fill_1  IS MISSING !!!!
*  XFILLER_20_29 -  fill_2  IS MISSING !!!!
*  XFILLER_20_3 -  decap_8  IS MISSING !!!!
*  XFILLER_20_51 -  decap_12  IS MISSING !!!!
*  XFILLER_20_63 -  decap_6  IS MISSING !!!!
*  XFILLER_20_69 -  fill_1  IS MISSING !!!!
*  XFILLER_20_78 -  decap_6  IS MISSING !!!!
*  XFILLER_20_85 -  fill_1  IS MISSING !!!!
*  XFILLER_20_89 -  decap_8  IS MISSING !!!!
*  XFILLER_20_97 -  fill_1  IS MISSING !!!!
*  XFILLER_21_104 -  fill_1  IS MISSING !!!!
*  XFILLER_21_108 -  decap_4  IS MISSING !!!!
*  XFILLER_21_116 -  decap_8  IS MISSING !!!!
*  XFILLER_21_144 -  decap_8  IS MISSING !!!!
*  XFILLER_21_160 -  decap_8  IS MISSING !!!!
*  XFILLER_21_176 -  decap_4  IS MISSING !!!!
*  XFILLER_21_183 -  decap_4  IS MISSING !!!!
*  XFILLER_21_187 -  fill_1  IS MISSING !!!!
*  XFILLER_21_23 -  decap_8  IS MISSING !!!!
*  XFILLER_21_39 -  decap_4  IS MISSING !!!!
*  XFILLER_21_51 -  decap_4  IS MISSING !!!!
*  XFILLER_21_55 -  fill_1  IS MISSING !!!!
*  XFILLER_21_57 -  decap_4  IS MISSING !!!!
*  XFILLER_21_69 -  decap_8  IS MISSING !!!!
*  XFILLER_21_77 -  fill_1  IS MISSING !!!!
*  XFILLER_21_98 -  decap_6  IS MISSING !!!!
*  XFILLER_22_102 -  decap_4  IS MISSING !!!!
*  XFILLER_22_11 -  decap_4  IS MISSING !!!!
*  XFILLER_22_116 -  decap_6  IS MISSING !!!!
*  XFILLER_22_122 -  fill_1  IS MISSING !!!!
*  XFILLER_22_131 -  decap_8  IS MISSING !!!!
*  XFILLER_22_139 -  fill_1  IS MISSING !!!!
*  XFILLER_22_141 -  decap_4  IS MISSING !!!!
*  XFILLER_22_145 -  fill_1  IS MISSING !!!!
*  XFILLER_22_150 -  decap_4  IS MISSING !!!!
*  XFILLER_22_158 -  decap_6  IS MISSING !!!!
*  XFILLER_22_18 -  decap_8  IS MISSING !!!!
*  XFILLER_22_184 -  decap_4  IS MISSING !!!!
*  XFILLER_22_26 -  fill_2  IS MISSING !!!!
*  XFILLER_22_29 -  decap_6  IS MISSING !!!!
*  XFILLER_22_3 -  decap_4  IS MISSING !!!!
*  XFILLER_22_35 -  fill_1  IS MISSING !!!!
*  XFILLER_22_46 -  decap_4  IS MISSING !!!!
*  XFILLER_22_7 -  fill_1  IS MISSING !!!!
*  XFILLER_22_70 -  decap_4  IS MISSING !!!!
*  XFILLER_22_78 -  decap_6  IS MISSING !!!!
*  XFILLER_22_85 -  decap_3  IS MISSING !!!!
*  XFILLER_22_91 -  decap_6  IS MISSING !!!!
*  XFILLER_22_97 -  fill_1  IS MISSING !!!!
*  XFILLER_23_101 -  decap_4  IS MISSING !!!!
*  XFILLER_23_108 -  decap_4  IS MISSING !!!!
*  XFILLER_23_11 -  fill_1  IS MISSING !!!!
*  XFILLER_23_113 -  fill_1  IS MISSING !!!!
*  XFILLER_23_122 -  decap_4  IS MISSING !!!!
*  XFILLER_23_133 -  decap_4  IS MISSING !!!!
*  XFILLER_23_140 -  decap_4  IS MISSING !!!!
*  XFILLER_23_164 -  decap_4  IS MISSING !!!!
*  XFILLER_23_177 -  decap_4  IS MISSING !!!!
*  XFILLER_23_184 -  decap_4  IS MISSING !!!!
*  XFILLER_23_3 -  decap_8  IS MISSING !!!!
*  XFILLER_23_32 -  decap_12  IS MISSING !!!!
*  XFILLER_23_44 -  decap_4  IS MISSING !!!!
*  XFILLER_23_48 -  fill_1  IS MISSING !!!!
*  XFILLER_23_52 -  decap_4  IS MISSING !!!!
*  XFILLER_23_57 -  decap_4  IS MISSING !!!!
*  XFILLER_23_65 -  decap_8  IS MISSING !!!!
*  XFILLER_23_80 -  decap_6  IS MISSING !!!!
*  XFILLER_23_89 -  decap_12  IS MISSING !!!!
*  XFILLER_24_105 -  decap_4  IS MISSING !!!!
*  XFILLER_24_129 -  decap_4  IS MISSING !!!!
*  XFILLER_24_136 -  decap_4  IS MISSING !!!!
*  XFILLER_24_14 -  decap_4  IS MISSING !!!!
*  XFILLER_24_144 -  decap_4  IS MISSING !!!!
*  XFILLER_24_151 -  decap_6  IS MISSING !!!!
*  XFILLER_24_160 -  decap_4  IS MISSING !!!!
*  XFILLER_24_18 -  fill_1  IS MISSING !!!!
*  XFILLER_24_184 -  decap_4  IS MISSING !!!!
*  XFILLER_24_22 -  decap_6  IS MISSING !!!!
*  XFILLER_24_3 -  decap_8  IS MISSING !!!!
*  XFILLER_24_32 -  decap_8  IS MISSING !!!!
*  XFILLER_24_43 -  decap_4  IS MISSING !!!!
*  XFILLER_24_50 -  decap_8  IS MISSING !!!!
*  XFILLER_24_58 -  fill_2  IS MISSING !!!!
*  XFILLER_24_68 -  decap_4  IS MISSING !!!!
*  XFILLER_24_80 -  decap_4  IS MISSING !!!!
*  XFILLER_25_100 -  decap_4  IS MISSING !!!!
*  XFILLER_25_107 -  decap_4  IS MISSING !!!!
*  XFILLER_25_11 -  decap_4  IS MISSING !!!!
*  XFILLER_25_111 -  fill_1  IS MISSING !!!!
*  XFILLER_25_116 -  decap_6  IS MISSING !!!!
*  XFILLER_25_122 -  fill_1  IS MISSING !!!!
*  XFILLER_25_143 -  decap_4  IS MISSING !!!!
*  XFILLER_25_150 -  decap_4  IS MISSING !!!!
*  XFILLER_25_157 -  decap_4  IS MISSING !!!!
*  XFILLER_25_164 -  decap_4  IS MISSING !!!!
*  XFILLER_25_177 -  decap_4  IS MISSING !!!!
*  XFILLER_25_18 -  decap_12  IS MISSING !!!!
*  XFILLER_25_184 -  decap_4  IS MISSING !!!!
*  XFILLER_25_3 -  decap_4  IS MISSING !!!!
*  XFILLER_25_30 -  fill_2  IS MISSING !!!!
*  XFILLER_25_52 -  decap_4  IS MISSING !!!!
*  XFILLER_25_7 -  fill_1  IS MISSING !!!!
*  XFILLER_25_77 -  decap_4  IS MISSING !!!!
*  XFILLER_25_84 -  decap_4  IS MISSING !!!!
*  XFILLER_25_88 -  fill_1  IS MISSING !!!!
*  XFILLER_25_92 -  decap_4  IS MISSING !!!!
*  XFILLER_25_96 -  fill_1  IS MISSING !!!!
*  XFILLER_26_114 -  decap_4  IS MISSING !!!!
*  XFILLER_26_121 -  decap_8  IS MISSING !!!!
*  XFILLER_26_136 -  decap_4  IS MISSING !!!!
*  XFILLER_26_141 -  decap_4  IS MISSING !!!!
*  XFILLER_26_165 -  decap_8  IS MISSING !!!!
*  XFILLER_26_176 -  decap_4  IS MISSING !!!!
*  XFILLER_26_184 -  decap_4  IS MISSING !!!!
*  XFILLER_26_23 -  decap_4  IS MISSING !!!!
*  XFILLER_26_27 -  fill_1  IS MISSING !!!!
*  XFILLER_26_29 -  decap_3  IS MISSING !!!!
*  XFILLER_26_35 -  decap_4  IS MISSING !!!!
*  XFILLER_26_47 -  decap_4  IS MISSING !!!!
*  XFILLER_26_54 -  decap_8  IS MISSING !!!!
*  XFILLER_26_62 -  fill_1  IS MISSING !!!!
*  XFILLER_26_66 -  decap_4  IS MISSING !!!!
*  XFILLER_26_73 -  decap_4  IS MISSING !!!!
*  XFILLER_26_80 -  decap_4  IS MISSING !!!!
*  XFILLER_26_88 -  decap_6  IS MISSING !!!!
*  XFILLER_27_102 -  decap_8  IS MISSING !!!!
*  XFILLER_27_110 -  fill_2  IS MISSING !!!!
*  XFILLER_27_12 -  decap_6  IS MISSING !!!!
*  XFILLER_27_120 -  decap_4  IS MISSING !!!!
*  XFILLER_27_127 -  decap_8  IS MISSING !!!!
*  XFILLER_27_135 -  fill_1  IS MISSING !!!!
*  XFILLER_27_144 -  decap_4  IS MISSING !!!!
*  XFILLER_27_151 -  decap_8  IS MISSING !!!!
*  XFILLER_27_164 -  decap_4  IS MISSING !!!!
*  XFILLER_27_174 -  decap_4  IS MISSING !!!!
*  XFILLER_27_18 -  fill_1  IS MISSING !!!!
*  XFILLER_27_181 -  decap_6  IS MISSING !!!!
*  XFILLER_27_187 -  fill_1  IS MISSING !!!!
*  XFILLER_27_22 -  decap_8  IS MISSING !!!!
*  XFILLER_27_3 -  decap_6  IS MISSING !!!!
*  XFILLER_27_30 -  fill_2  IS MISSING !!!!
*  XFILLER_27_40 -  decap_4  IS MISSING !!!!
*  XFILLER_27_51 -  decap_4  IS MISSING !!!!
*  XFILLER_27_55 -  fill_1  IS MISSING !!!!
*  XFILLER_27_60 -  decap_4  IS MISSING !!!!
*  XFILLER_27_67 -  decap_6  IS MISSING !!!!
*  XFILLER_27_73 -  fill_1  IS MISSING !!!!
*  XFILLER_27_94 -  decap_4  IS MISSING !!!!
*  XFILLER_28_107 -  decap_4  IS MISSING !!!!
*  XFILLER_28_119 -  decap_8  IS MISSING !!!!
*  XFILLER_28_12 -  decap_4  IS MISSING !!!!
*  XFILLER_28_127 -  fill_1  IS MISSING !!!!
*  XFILLER_28_136 -  decap_4  IS MISSING !!!!
*  XFILLER_28_141 -  decap_4  IS MISSING !!!!
*  XFILLER_28_145 -  fill_1  IS MISSING !!!!
*  XFILLER_28_149 -  decap_4  IS MISSING !!!!
*  XFILLER_28_158 -  decap_6  IS MISSING !!!!
*  XFILLER_28_184 -  decap_4  IS MISSING !!!!
*  XFILLER_28_24 -  decap_4  IS MISSING !!!!
*  XFILLER_28_3 -  decap_6  IS MISSING !!!!
*  XFILLER_28_32 -  decap_8  IS MISSING !!!!
*  XFILLER_28_40 -  fill_2  IS MISSING !!!!
*  XFILLER_28_62 -  decap_6  IS MISSING !!!!
*  XFILLER_28_68 -  fill_1  IS MISSING !!!!
*  XFILLER_28_77 -  decap_6  IS MISSING !!!!
*  XFILLER_28_83 -  fill_1  IS MISSING !!!!
*  XFILLER_28_85 -  fill_1  IS MISSING !!!!
*  XFILLER_28_89 -  decap_8  IS MISSING !!!!
*  XFILLER_28_97 -  fill_2  IS MISSING !!!!
*  XFILLER_29_105 -  decap_6  IS MISSING !!!!
*  XFILLER_29_111 -  fill_1  IS MISSING !!!!
*  XFILLER_29_113 -  decap_4  IS MISSING !!!!
*  XFILLER_29_122 -  decap_6  IS MISSING !!!!
*  XFILLER_29_148 -  decap_4  IS MISSING !!!!
*  XFILLER_29_152 -  fill_1  IS MISSING !!!!
*  XFILLER_29_161 -  decap_6  IS MISSING !!!!
*  XFILLER_29_167 -  fill_1  IS MISSING !!!!
*  XFILLER_29_169 -  decap_3  IS MISSING !!!!
*  XFILLER_29_180 -  decap_8  IS MISSING !!!!
*  XFILLER_29_23 -  decap_4  IS MISSING !!!!
*  XFILLER_29_34 -  decap_4  IS MISSING !!!!
*  XFILLER_29_43 -  decap_4  IS MISSING !!!!
*  XFILLER_29_50 -  decap_6  IS MISSING !!!!
*  XFILLER_29_65 -  decap_4  IS MISSING !!!!
*  XFILLER_29_76 -  decap_6  IS MISSING !!!!
*  XFILLER_29_87 -  decap_4  IS MISSING !!!!
*  XFILLER_29_94 -  decap_6  IS MISSING !!!!
*  XFILLER_2_11 -  decap_3  IS MISSING !!!!
*  XFILLER_2_120 -  decap_4  IS MISSING !!!!
*  XFILLER_2_132 -  decap_8  IS MISSING !!!!
*  XFILLER_2_141 -  fill_2  IS MISSING !!!!
*  XFILLER_2_150 -  decap_4  IS MISSING !!!!
*  XFILLER_2_174 -  decap_12  IS MISSING !!!!
*  XFILLER_2_186 -  fill_2  IS MISSING !!!!
*  XFILLER_2_22 -  decap_6  IS MISSING !!!!
*  XFILLER_2_29 -  decap_3  IS MISSING !!!!
*  XFILLER_2_3 -  decap_8  IS MISSING !!!!
*  XFILLER_2_40 -  decap_6  IS MISSING !!!!
*  XFILLER_2_66 -  decap_4  IS MISSING !!!!
*  XFILLER_2_80 -  decap_4  IS MISSING !!!!
*  XFILLER_2_85 -  decap_12  IS MISSING !!!!
*  XFILLER_2_97 -  decap_3  IS MISSING !!!!
*  XFILLER_30_108 -  decap_4  IS MISSING !!!!
*  XFILLER_30_117 -  decap_4  IS MISSING !!!!
*  XFILLER_30_126 -  decap_4  IS MISSING !!!!
*  XFILLER_30_135 -  decap_4  IS MISSING !!!!
*  XFILLER_30_139 -  fill_1  IS MISSING !!!!
*  XFILLER_30_14 -  fill_1  IS MISSING !!!!
*  XFILLER_30_146 -  decap_8  IS MISSING !!!!
*  XFILLER_30_159 -  decap_8  IS MISSING !!!!
*  XFILLER_30_167 -  fill_2  IS MISSING !!!!
*  XFILLER_30_176 -  decap_4  IS MISSING !!!!
*  XFILLER_30_184 -  decap_4  IS MISSING !!!!
*  XFILLER_30_23 -  decap_4  IS MISSING !!!!
*  XFILLER_30_27 -  fill_1  IS MISSING !!!!
*  XFILLER_30_29 -  decap_3  IS MISSING !!!!
*  XFILLER_30_37 -  decap_4  IS MISSING !!!!
*  XFILLER_30_46 -  decap_4  IS MISSING !!!!
*  XFILLER_30_55 -  decap_4  IS MISSING !!!!
*  XFILLER_30_6 -  decap_8  IS MISSING !!!!
*  XFILLER_30_64 -  decap_4  IS MISSING !!!!
*  XFILLER_30_73 -  decap_4  IS MISSING !!!!
*  XFILLER_30_80 -  decap_4  IS MISSING !!!!
*  XFILLER_30_90 -  decap_4  IS MISSING !!!!
*  XFILLER_30_99 -  decap_4  IS MISSING !!!!
*  XFILLER_31_102 -  decap_8  IS MISSING !!!!
*  XFILLER_31_110 -  fill_2  IS MISSING !!!!
*  XFILLER_31_116 -  decap_6  IS MISSING !!!!
*  XFILLER_31_125 -  decap_4  IS MISSING !!!!
*  XFILLER_31_13 -  decap_6  IS MISSING !!!!
*  XFILLER_31_132 -  decap_8  IS MISSING !!!!
*  XFILLER_31_141 -  decap_4  IS MISSING !!!!
*  XFILLER_31_145 -  fill_1  IS MISSING !!!!
*  XFILLER_31_149 -  decap_4  IS MISSING !!!!
*  XFILLER_31_158 -  decap_8  IS MISSING !!!!
*  XFILLER_31_166 -  fill_2  IS MISSING !!!!
*  XFILLER_31_169 -  decap_4  IS MISSING !!!!
*  XFILLER_31_173 -  fill_1  IS MISSING !!!!
*  XFILLER_31_184 -  decap_4  IS MISSING !!!!
*  XFILLER_31_24 -  decap_4  IS MISSING !!!!
*  XFILLER_31_34 -  decap_8  IS MISSING !!!!
*  XFILLER_31_45 -  decap_4  IS MISSING !!!!
*  XFILLER_31_52 -  decap_4  IS MISSING !!!!
*  XFILLER_31_6 -  decap_4  IS MISSING !!!!
*  XFILLER_31_60 -  decap_4  IS MISSING !!!!
*  XFILLER_31_69 -  decap_4  IS MISSING !!!!
*  XFILLER_31_78 -  decap_6  IS MISSING !!!!
*  XFILLER_31_88 -  decap_4  IS MISSING !!!!
*  XFILLER_31_95 -  decap_4  IS MISSING !!!!
*  XFILLER_3_107 -  decap_4  IS MISSING !!!!
*  XFILLER_3_111 -  fill_1  IS MISSING !!!!
*  XFILLER_3_113 -  fill_2  IS MISSING !!!!
*  XFILLER_3_123 -  decap_4  IS MISSING !!!!
*  XFILLER_3_134 -  decap_4  IS MISSING !!!!
*  XFILLER_3_138 -  fill_1  IS MISSING !!!!
*  XFILLER_3_159 -  decap_8  IS MISSING !!!!
*  XFILLER_3_167 -  fill_1  IS MISSING !!!!
*  XFILLER_3_169 -  decap_12  IS MISSING !!!!
*  XFILLER_3_181 -  decap_6  IS MISSING !!!!
*  XFILLER_3_187 -  fill_1  IS MISSING !!!!
*  XFILLER_3_27 -  decap_4  IS MISSING !!!!
*  XFILLER_3_3 -  decap_4  IS MISSING !!!!
*  XFILLER_3_34 -  decap_8  IS MISSING !!!!
*  XFILLER_3_42 -  fill_2  IS MISSING !!!!
*  XFILLER_3_52 -  decap_4  IS MISSING !!!!
*  XFILLER_3_57 -  fill_1  IS MISSING !!!!
*  XFILLER_3_61 -  decap_12  IS MISSING !!!!
*  XFILLER_3_73 -  fill_2  IS MISSING !!!!
*  XFILLER_3_95 -  decap_12  IS MISSING !!!!
*  XFILLER_4_100 -  decap_12  IS MISSING !!!!
*  XFILLER_4_112 -  decap_12  IS MISSING !!!!
*  XFILLER_4_124 -  decap_12  IS MISSING !!!!
*  XFILLER_4_136 -  decap_4  IS MISSING !!!!
*  XFILLER_4_141 -  decap_4  IS MISSING !!!!
*  XFILLER_4_153 -  decap_4  IS MISSING !!!!
*  XFILLER_4_16 -  decap_4  IS MISSING !!!!
*  XFILLER_4_160 -  decap_4  IS MISSING !!!!
*  XFILLER_4_184 -  decap_4  IS MISSING !!!!
*  XFILLER_4_23 -  decap_4  IS MISSING !!!!
*  XFILLER_4_27 -  fill_1  IS MISSING !!!!
*  XFILLER_4_29 -  decap_4  IS MISSING !!!!
*  XFILLER_4_3 -  decap_4  IS MISSING !!!!
*  XFILLER_4_53 -  decap_8  IS MISSING !!!!
*  XFILLER_4_61 -  fill_1  IS MISSING !!!!
*  XFILLER_4_65 -  decap_4  IS MISSING !!!!
*  XFILLER_4_7 -  fill_1  IS MISSING !!!!
*  XFILLER_4_72 -  decap_4  IS MISSING !!!!
*  XFILLER_4_79 -  decap_4  IS MISSING !!!!
*  XFILLER_4_83 -  fill_1  IS MISSING !!!!
*  XFILLER_4_88 -  decap_12  IS MISSING !!!!
*  XFILLER_5_108 -  decap_4  IS MISSING !!!!
*  XFILLER_5_113 -  fill_1  IS MISSING !!!!
*  XFILLER_5_122 -  decap_4  IS MISSING !!!!
*  XFILLER_5_129 -  decap_12  IS MISSING !!!!
*  XFILLER_5_141 -  decap_12  IS MISSING !!!!
*  XFILLER_5_153 -  decap_3  IS MISSING !!!!
*  XFILLER_5_164 -  decap_4  IS MISSING !!!!
*  XFILLER_5_169 -  decap_6  IS MISSING !!!!
*  XFILLER_5_178 -  decap_8  IS MISSING !!!!
*  XFILLER_5_186 -  fill_2  IS MISSING !!!!
*  XFILLER_5_3 -  decap_8  IS MISSING !!!!
*  XFILLER_5_31 -  decap_4  IS MISSING !!!!
*  XFILLER_5_38 -  decap_4  IS MISSING !!!!
*  XFILLER_5_45 -  decap_4  IS MISSING !!!!
*  XFILLER_5_52 -  decap_4  IS MISSING !!!!
*  XFILLER_5_77 -  decap_12  IS MISSING !!!!
*  XFILLER_5_89 -  fill_2  IS MISSING !!!!
*  XFILLER_5_94 -  decap_6  IS MISSING !!!!
*  XFILLER_6_10 -  decap_12  IS MISSING !!!!
*  XFILLER_6_105 -  decap_4  IS MISSING !!!!
*  XFILLER_6_112 -  decap_4  IS MISSING !!!!
*  XFILLER_6_136 -  decap_4  IS MISSING !!!!
*  XFILLER_6_141 -  decap_6  IS MISSING !!!!
*  XFILLER_6_155 -  decap_4  IS MISSING !!!!
*  XFILLER_6_166 -  decap_6  IS MISSING !!!!
*  XFILLER_6_172 -  fill_1  IS MISSING !!!!
*  XFILLER_6_176 -  decap_12  IS MISSING !!!!
*  XFILLER_6_22 -  decap_6  IS MISSING !!!!
*  XFILLER_6_3 -  fill_2  IS MISSING !!!!
*  XFILLER_6_32 -  decap_12  IS MISSING !!!!
*  XFILLER_6_44 -  fill_1  IS MISSING !!!!
*  XFILLER_6_48 -  decap_4  IS MISSING !!!!
*  XFILLER_6_52 -  fill_1  IS MISSING !!!!
*  XFILLER_6_56 -  decap_4  IS MISSING !!!!
*  XFILLER_6_64 -  decap_4  IS MISSING !!!!
*  XFILLER_6_73 -  decap_8  IS MISSING !!!!
*  XFILLER_6_81 -  decap_3  IS MISSING !!!!
*  XFILLER_7_104 -  decap_8  IS MISSING !!!!
*  XFILLER_7_11 -  decap_12  IS MISSING !!!!
*  XFILLER_7_120 -  decap_4  IS MISSING !!!!
*  XFILLER_7_127 -  decap_4  IS MISSING !!!!
*  XFILLER_7_134 -  decap_8  IS MISSING !!!!
*  XFILLER_7_162 -  decap_6  IS MISSING !!!!
*  XFILLER_7_169 -  decap_6  IS MISSING !!!!
*  XFILLER_7_178 -  decap_8  IS MISSING !!!!
*  XFILLER_7_186 -  fill_2  IS MISSING !!!!
*  XFILLER_7_23 -  decap_12  IS MISSING !!!!
*  XFILLER_7_3 -  decap_3  IS MISSING !!!!
*  XFILLER_7_35 -  decap_12  IS MISSING !!!!
*  XFILLER_7_50 -  decap_6  IS MISSING !!!!
*  XFILLER_7_57 -  decap_6  IS MISSING !!!!
*  XFILLER_7_63 -  fill_1  IS MISSING !!!!
*  XFILLER_7_74 -  decap_8  IS MISSING !!!!
*  XFILLER_7_82 -  fill_1  IS MISSING !!!!
*  XFILLER_7_90 -  decap_4  IS MISSING !!!!
*  XFILLER_7_97 -  decap_4  IS MISSING !!!!
*  XFILLER_8_122 -  decap_8  IS MISSING !!!!
*  XFILLER_8_133 -  decap_6  IS MISSING !!!!
*  XFILLER_8_139 -  fill_1  IS MISSING !!!!
*  XFILLER_8_141 -  fill_2  IS MISSING !!!!
*  XFILLER_8_146 -  decap_4  IS MISSING !!!!
*  XFILLER_8_15 -  fill_1  IS MISSING !!!!
*  XFILLER_8_153 -  decap_4  IS MISSING !!!!
*  XFILLER_8_160 -  decap_4  IS MISSING !!!!
*  XFILLER_8_184 -  decap_4  IS MISSING !!!!
*  XFILLER_8_24 -  decap_4  IS MISSING !!!!
*  XFILLER_8_29 -  decap_8  IS MISSING !!!!
*  XFILLER_8_3 -  decap_12  IS MISSING !!!!
*  XFILLER_8_57 -  decap_6  IS MISSING !!!!
*  XFILLER_8_63 -  fill_1  IS MISSING !!!!
*  XFILLER_8_74 -  decap_8  IS MISSING !!!!
*  XFILLER_8_82 -  fill_2  IS MISSING !!!!
*  XFILLER_8_85 -  fill_1  IS MISSING !!!!
*  XFILLER_8_94 -  decap_8  IS MISSING !!!!
*  XFILLER_9_105 -  decap_6  IS MISSING !!!!
*  XFILLER_9_11 -  fill_2  IS MISSING !!!!
*  XFILLER_9_111 -  fill_1  IS MISSING !!!!
*  XFILLER_9_113 -  fill_1  IS MISSING !!!!
*  XFILLER_9_118 -  decap_4  IS MISSING !!!!
*  XFILLER_9_142 -  decap_4  IS MISSING !!!!
*  XFILLER_9_150 -  decap_6  IS MISSING !!!!
*  XFILLER_9_156 -  fill_1  IS MISSING !!!!
*  XFILLER_9_164 -  decap_4  IS MISSING !!!!
*  XFILLER_9_177 -  decap_4  IS MISSING !!!!
*  XFILLER_9_184 -  decap_4  IS MISSING !!!!
*  XFILLER_9_3 -  decap_8  IS MISSING !!!!
*  XFILLER_9_33 -  decap_4  IS MISSING !!!!
*  XFILLER_9_45 -  decap_4  IS MISSING !!!!
*  XFILLER_9_52 -  decap_4  IS MISSING !!!!
*  XFILLER_9_67 -  decap_4  IS MISSING !!!!
*  XFILLER_9_74 -  decap_4  IS MISSING !!!!
*  XFILLER_9_98 -  decap_4  IS MISSING !!!!
*  XPHY_0 -  decap_3  IS MISSING !!!!
*  XPHY_1 -  decap_3  IS MISSING !!!!
*  XPHY_10 -  decap_3  IS MISSING !!!!
*  XPHY_11 -  decap_3  IS MISSING !!!!
*  XPHY_12 -  decap_3  IS MISSING !!!!
*  XPHY_13 -  decap_3  IS MISSING !!!!
*  XPHY_14 -  decap_3  IS MISSING !!!!
*  XPHY_15 -  decap_3  IS MISSING !!!!
*  XPHY_16 -  decap_3  IS MISSING !!!!
*  XPHY_17 -  decap_3  IS MISSING !!!!
*  XPHY_18 -  decap_3  IS MISSING !!!!
*  XPHY_19 -  decap_3  IS MISSING !!!!
*  XPHY_2 -  decap_3  IS MISSING !!!!
*  XPHY_20 -  decap_3  IS MISSING !!!!
*  XPHY_21 -  decap_3  IS MISSING !!!!
*  XPHY_22 -  decap_3  IS MISSING !!!!
*  XPHY_23 -  decap_3  IS MISSING !!!!
*  XPHY_24 -  decap_3  IS MISSING !!!!
*  XPHY_25 -  decap_3  IS MISSING !!!!
*  XPHY_26 -  decap_3  IS MISSING !!!!
*  XPHY_27 -  decap_3  IS MISSING !!!!
*  XPHY_28 -  decap_3  IS MISSING !!!!
*  XPHY_29 -  decap_3  IS MISSING !!!!
*  XPHY_3 -  decap_3  IS MISSING !!!!
*  XPHY_30 -  decap_3  IS MISSING !!!!
*  XPHY_31 -  decap_3  IS MISSING !!!!
*  XPHY_32 -  decap_3  IS MISSING !!!!
*  XPHY_33 -  decap_3  IS MISSING !!!!
*  XPHY_34 -  decap_3  IS MISSING !!!!
*  XPHY_35 -  decap_3  IS MISSING !!!!